


 14 13  0  0000  0  0  0  0  0999 V2000
    4.2690   -0.7500    0.0000 O   0  0  0  0  0  0  0  0  0  0  0
    2.5369    2.2500    0.0000 O   0  0  0  0  0  0  0  0  0  0  0
    4.2690    2.2500    0.0000 O   0  0  0  0  0  0  0  0  0  0  0
    2.5369   -0.7500    0.0000 O   0  0  0  0  0  0  0  0  0  0  0
    6.0010    0.2500    0.0000 N   0  3  0  0  0  0  0  0  0  0  0
    5.1350    0.7500    0.0000 C   0  0  0  0  0  0  0  0  0  0  0
    4.2690    0.2500    0.0000 C   0  0  0  0  0  0  0  0  0  0  0
    5.5010   -0.6160    0.0000 C   0  0  0  0  0  0  0  0  0  0  0
    6.5010    1.1160    0.0000 C   0  0  0  0  0  0  0  0  0  0  0
    6.8671   -0.2500    0.0000 C   0  0  0  0  0  0  0  0  0  0  0
    3.4030    0.7500    0.0000 C   0  0  0  0  0  0  0  0  0  0  0
    3.4030    1.7500    0.0000 C   0  0  0  0  0  0  0  0  0  0  0
    3.4030   -1.2500    0.0000 C   0  0  0  0  0  0  0  0  0  0  0
    3.4030   -2.2500    0.0000 C   0  0  0  0  0  0  0  0  0  0  0
  1  7  1  0
  1 13  1  0
  2 12  1  0
  3 12  2  0
  4 13  2  0
  5  6  1  0
  5  8  1  0
  5  9  1  0
  5 10  1  0
  6  7  1  0
  7 11  1  0
 11 12  1  0
 13 14  1  0
M  CHG  1   5   1
M  END

> <PUBCHEM_BONDANNOTATIONS>
7  1  3

> <StdInChI>
InChI=1S/C9H17NO4/c1-7(11)14-8(5-9(12)13)6-10(2,3)4/h8H,5-6H2,1-4H3/p+1

> <StdInChIKey>
RDHQFKQIGNGIED-UHFFFAOYSA-O

> <AuxInfo>
1/1/N:14,8,9,10,11,6,13,7,12,5,4,2,3,1/E:(2,3,4)(12,13)/CRV:10+1,12-1/rA:32cOOOON+CCCCCCCCCHHHHHHHHHHHHHHHHHH/rB:;;;;s5;s1s6;s5;s5;s5;s7;s2d3s11;s1d4;s13;s6;s6;s7;s8;s8;s8;s9;s9;s9;s10;s10;s10;s11;s11;s14;s14;s14;s2;/rC:4.269,-.75,0;2.5369,2.25,0;4.269,2.25,0;2.5369,-.75,0;6.001,.25,0;5.135,.75,0;4.269,.25,0;5.501,-.616,0;6.501,1.116,0;6.8671,-.25,0;3.403,.75,0;3.403,1.75,0;3.403,-1.25,0;3.403,-2.25,0;5.5335,1.2249,0;4.7365,1.2249,0;4.8059,-.06,0;6.038,-.926,0;5.191,-1.153,0;4.9641,-.306,0;5.9641,1.426,0;6.811,1.653,0;7.038,.806,0;7.1771,.2869,0;7.404,-.56,0;6.5571,-.7869,0;2.7924,.8577,0;3.1909,.1674,0;4.023,-2.25,0;3.403,-2.87,0;2.783,-2.25,0;2,1.94,0;

> <Formula>
C9 H18 N O4

> <Mw>
204.2435

> <SMILES>
O(C(C([H])([H])[H])=O)C([H])(C([H])([H])C(=O)O[H])C([H])([H])[N+](C([H])([H])[H])(C([H])([H])[H])C([H])([H])[H]

> <CSID>
1

$$$$
