
  1019              2D

  2  0  0  0  0  0  0  0  0  0999 V2000
   -0.8500    0.8500    0.0000 Na  0  3  0  0  0  0  0  0  0  0  0  0
    0.8500   -0.8500    0.0000 Cl  0  5  0  0  0  0  0  0  0  0  0  0
M  CHG  2   1   1   2  -1
M  END

> <energy>
-117.20387144638963

> <StdInChI>
InChI=1S/ClH.Na/h1H;/q;+1/p-1

> <StdInChIKey>
FAPWRFPIFSIZLT-UHFFFAOYSA-M

> <AuxInfo>
1/1/N:2;1/rA:2nNa+Cl-/rB:;/rC:-.85,.85,0;.85,-.85,0;

> <Formula>
Cl Na

> <Mw>
58.44277

> <SMILES>
[Na+].[Cl-]

> <CSID>
5044

$$$$
